2
Properties=species:S:1:pos:R:3:forces:R:3 energy=-1.3540425196467762 pbc="F F F"
H        0.00000000       0.00000000       0.00000000              nan              nan              nan
H        0.00000000       0.00000000       0.00000000              nan              nan              nan
2
Properties=species:S:1:pos:R:3:forces:R:3 energy=-1.548420569588663 pbc="F F F"
H        0.00000000       0.00000000       0.00000000       0.00000000       0.00000000      -0.84115568
H        0.00000000       0.00000000       0.20408163       0.00000000       0.00000000       0.84115568
2
Properties=species:S:1:pos:R:3:forces:R:3 energy=-1.699585433644247 pbc="F F F"
H        0.00000000       0.00000000       0.00000000       0.00000000       0.00000000      -0.64532775
H        0.00000000       0.00000000       0.40816327       0.00000000       0.00000000       0.64532775
2
Properties=species:S:1:pos:R:3:forces:R:3 energy=-1.8137533277417293 pbc="F F F"
H        0.00000000       0.00000000       0.00000000       0.00000000       0.00000000      -0.47794140
H        0.00000000       0.00000000       0.61224490       0.00000000       0.00000000       0.47794140
2
Properties=species:S:1:pos:R:3:forces:R:3 energy=-1.8963506553998335 pbc="F F F"
H        0.00000000       0.00000000       0.00000000       0.00000000       0.00000000      -0.33537000
H        0.00000000       0.00000000       0.81632653       0.00000000       0.00000000       0.33537000
2
Properties=species:S:1:pos:R:3:forces:R:3 energy=-1.9521093918590962 pbc="F F F"
H        0.00000000       0.00000000       0.00000000       0.00000000       0.00000000      -0.21442561
H        0.00000000       0.00000000       1.02040816       0.00000000       0.00000000       0.21442561
2
Properties=species:S:1:pos:R:3:forces:R:3 energy=-1.9851512164150786 pbc="F F F"
H        0.00000000       0.00000000       0.00000000       0.00000000       0.00000000      -0.11230716
H        0.00000000       0.00000000       1.22448980       0.00000000       0.00000000       0.11230716
2
Properties=species:S:1:pos:R:3:forces:R:3 energy=-1.999061705085634 pbc="F F F"
H        0.00000000       0.00000000       0.00000000       0.00000000       0.00000000      -0.02655475
H        0.00000000       0.00000000       1.42857143       0.00000000       0.00000000       0.02655475
2
Properties=species:S:1:pos:R:3:forces:R:3 energy=-1.996955743609449 pbc="F F F"
H        0.00000000       0.00000000       0.00000000       0.00000000       0.00000000       0.04499080
H        0.00000000       0.00000000       1.63265306       0.00000000       0.00000000      -0.04499080
2
Properties=species:S:1:pos:R:3:forces:R:3 energy=-1.981535186225809 pbc="F F F"
H        0.00000000       0.00000000       0.00000000       0.00000000       0.00000000       0.10422361
H        0.00000000       0.00000000       1.83673469       0.00000000       0.00000000      -0.10422361
2
Properties=species:S:1:pos:R:3:forces:R:3 energy=-1.955139666695683 pbc="F F F"
H        0.00000000       0.00000000       0.00000000       0.00000000       0.00000000       0.15280425
H        0.00000000       0.00000000       2.04081633       0.00000000       0.00000000      -0.15280425
2
Properties=species:S:1:pos:R:3:forces:R:3 energy=-1.9197913627958 pbc="F F F"
H        0.00000000       0.00000000       0.00000000       0.00000000       0.00000000       0.19218757
H        0.00000000       0.00000000       2.24489796       0.00000000       0.00000000      -0.19218757
2
Properties=species:S:1:pos:R:3:forces:R:3 energy=-1.8772344224615833 pbc="F F F"
H        0.00000000       0.00000000       0.00000000       0.00000000       0.00000000       0.22364726
H        0.00000000       0.00000000       2.44897959       0.00000000       0.00000000      -0.22364726
2
Properties=species:S:1:pos:R:3:forces:R:3 energy=-1.8289696774659807 pbc="F F F"
H        0.00000000       0.00000000       0.00000000       0.00000000       0.00000000       0.24829751
H        0.00000000       0.00000000       2.65306122       0.00000000       0.00000000      -0.24829751
2
Properties=species:S:1:pos:R:3:forces:R:3 energy=-1.7762851977560936 pbc="F F F"
H        0.00000000       0.00000000       0.00000000       0.00000000       0.00000000       0.26711219
H        0.00000000       0.00000000       2.85714286       0.00000000       0.00000000      -0.26711219
2
Properties=species:S:1:pos:R:3:forces:R:3 energy=-1.720283175227968 pbc="F F F"
H        0.00000000       0.00000000       0.00000000       0.00000000       0.00000000       0.28094169
H        0.00000000       0.00000000       3.06122449       0.00000000       0.00000000      -0.28094169
2
Properties=species:S:1:pos:R:3:forces:R:3 energy=-1.661903568829036 pbc="F F F"
H        0.00000000       0.00000000       0.00000000       0.00000000       0.00000000       0.29052782
H        0.00000000       0.00000000       3.26530612       0.00000000       0.00000000      -0.29052782
2
Properties=species:S:1:pos:R:3:forces:R:3 energy=-1.6019448925766364 pbc="F F F"
H        0.00000000       0.00000000       0.00000000       0.00000000       0.00000000       0.29651699
H        0.00000000       0.00000000       3.46938776       0.00000000       0.00000000      -0.29651699
2
Properties=species:S:1:pos:R:3:forces:R:3 energy=-1.5410824836083854 pbc="F F F"
H        0.00000000       0.00000000       0.00000000       0.00000000       0.00000000       0.29947173
H        0.00000000       0.00000000       3.67346939       0.00000000       0.00000000      -0.29947173
2
Properties=species:S:1:pos:R:3:forces:R:3 energy=-1.479884548062344 pbc="F F F"
H        0.00000000       0.00000000       0.00000000       0.00000000       0.00000000       0.29988099
H        0.00000000       0.00000000       3.87755102       0.00000000       0.00000000      -0.29988099
2
Properties=species:S:1:pos:R:3:forces:R:3 energy=-1.418826247826075 pbc="F F F"
H        0.00000000       0.00000000       0.00000000       0.00000000       0.00000000       0.29816908
H        0.00000000       0.00000000       4.08163265       0.00000000       0.00000000      -0.29816908
2
Properties=species:S:1:pos:R:3:forces:R:3 energy=-1.3583020604667766 pbc="F F F"
H        0.00000000       0.00000000       0.00000000       0.00000000       0.00000000       0.29470362
H        0.00000000       0.00000000       4.28571429       0.00000000       0.00000000      -0.29470362
2
Properties=species:S:1:pos:R:3:forces:R:3 energy=-1.2986366174934718 pbc="F F F"
H        0.00000000       0.00000000       0.00000000       0.00000000       0.00000000       0.28980257
H        0.00000000       0.00000000       4.48979592       0.00000000       0.00000000      -0.28980257
2
Properties=species:S:1:pos:R:3:forces:R:3 energy=-1.2400942020943357 pbc="F F F"
H        0.00000000       0.00000000       0.00000000       0.00000000       0.00000000       0.28374036
H        0.00000000       0.00000000       4.69387755       0.00000000       0.00000000      -0.28374036
2
Properties=species:S:1:pos:R:3:forces:R:3 energy=-1.1828870662728825 pbc="F F F"
H        0.00000000       0.00000000       0.00000000       0.00000000       0.00000000       0.27675330
H        0.00000000       0.00000000       4.89795918       0.00000000       0.00000000      -0.27675330
2
Properties=species:S:1:pos:R:3:forces:R:3 energy=-1.1271827085532349 pbc="F F F"
H        0.00000000       0.00000000       0.00000000       0.00000000       0.00000000       0.26904442
H        0.00000000       0.00000000       5.10204082       0.00000000       0.00000000      -0.26904442
2
Properties=species:S:1:pos:R:3:forces:R:3 energy=-1.0731102368516738 pbc="F F F"
H        0.00000000       0.00000000       0.00000000       0.00000000       0.00000000       0.26078758
H        0.00000000       0.00000000       5.30612245       0.00000000       0.00000000      -0.26078758
2
Properties=species:S:1:pos:R:3:forces:R:3 energy=-1.0207659264666809 pbc="F F F"
H        0.00000000       0.00000000       0.00000000       0.00000000       0.00000000       0.25213124
H        0.00000000       0.00000000       5.51020408       0.00000000       0.00000000      -0.25213124
2
Properties=species:S:1:pos:R:3:forces:R:3 energy=-0.9702180701994478 pbc="F F F"
H        0.00000000       0.00000000       0.00000000       0.00000000       0.00000000       0.24320168
H        0.00000000       0.00000000       5.71428571       0.00000000       0.00000000      -0.24320168
2
Properties=species:S:1:pos:R:3:forces:R:3 energy=-0.9215112061839064 pbc="F F F"
H        0.00000000       0.00000000       0.00000000       0.00000000       0.00000000       0.23410587
H        0.00000000       0.00000000       5.91836735       0.00000000       0.00000000      -0.23410587
2
Properties=species:S:1:pos:R:3:forces:R:3 energy=-0.8746697989049876 pbc="F F F"
H        0.00000000       0.00000000       0.00000000       0.00000000       0.00000000       0.22493395
H        0.00000000       0.00000000       6.12244898       0.00000000       0.00000000      -0.22493395
2
Properties=species:S:1:pos:R:3:forces:R:3 energy=-0.8297014399616827 pbc="F F F"
H        0.00000000       0.00000000       0.00000000       0.00000000       0.00000000       0.21576147
H        0.00000000       0.00000000       6.32653061       0.00000000       0.00000000      -0.21576147
2
Properties=species:S:1:pos:R:3:forces:R:3 energy=-0.7865996272508162 pbc="F F F"
H        0.00000000       0.00000000       0.00000000       0.00000000       0.00000000       0.20665131
H        0.00000000       0.00000000       6.53061224       0.00000000       0.00000000      -0.20665131
2
Properties=species:S:1:pos:R:3:forces:R:3 energy=-0.7453461742875421 pbc="F F F"
H        0.00000000       0.00000000       0.00000000       0.00000000       0.00000000       0.19765536
H        0.00000000       0.00000000       6.73469388       0.00000000       0.00000000      -0.19765536
2
Properties=species:S:1:pos:R:3:forces:R:3 energy=-0.7059132952324912 pbc="F F F"
H        0.00000000       0.00000000       0.00000000       0.00000000       0.00000000       0.18881604
H        0.00000000       0.00000000       6.93877551       0.00000000       0.00000000      -0.18881604
2
Properties=species:S:1:pos:R:3:forces:R:3 energy=-0.6682654057688113 pbc="F F F"
H        0.00000000       0.00000000       0.00000000       0.00000000       0.00000000       0.18016755
H        0.00000000       0.00000000       7.14285714       0.00000000       0.00000000      -0.18016755
2
Properties=species:S:1:pos:R:3:forces:R:3 energy=-0.6323606751814304 pbc="F F F"
H        0.00000000       0.00000000       0.00000000       0.00000000       0.00000000       0.17173708
H        0.00000000       0.00000000       7.34693878       0.00000000       0.00000000      -0.17173708
2
Properties=species:S:1:pos:R:3:forces:R:3 energy=-0.5981523607619003 pbc="F F F"
H        0.00000000       0.00000000       0.00000000       0.00000000       0.00000000       0.16354574
H        0.00000000       0.00000000       7.55102041       0.00000000       0.00000000      -0.16354574
2
Properties=species:S:1:pos:R:3:forces:R:3 energy=-0.5655899519297548 pbc="F F F"
H        0.00000000       0.00000000       0.00000000       0.00000000       0.00000000       0.15560947
H        0.00000000       0.00000000       7.75510204       0.00000000       0.00000000      -0.15560947
2
Properties=species:S:1:pos:R:3:forces:R:3 energy=-0.5346201481677023 pbc="F F F"
H        0.00000000       0.00000000       0.00000000       0.00000000       0.00000000       0.14793979
H        0.00000000       0.00000000       7.95918367       0.00000000       0.00000000      -0.14793979
2
Properties=species:S:1:pos:R:3:forces:R:3 energy=-0.5051876919620677 pbc="F F F"
H        0.00000000       0.00000000       0.00000000       0.00000000       0.00000000       0.14054447
H        0.00000000       0.00000000       8.16326531       0.00000000       0.00000000      -0.14054447
2
Properties=species:S:1:pos:R:3:forces:R:3 energy=-0.47723607537653734 pbc="F F F"
H        0.00000000       0.00000000       0.00000000       0.00000000       0.00000000       0.13342809
H        0.00000000       0.00000000       8.36734694       0.00000000       0.00000000      -0.13342809
2
Properties=species:S:1:pos:R:3:forces:R:3 energy=-0.45070813662652087 pbc="F F F"
H        0.00000000       0.00000000       0.00000000       0.00000000       0.00000000       0.12659255
H        0.00000000       0.00000000       8.57142857       0.00000000       0.00000000      -0.12659255
2
Properties=species:S:1:pos:R:3:forces:R:3 energy=-0.4255465610280087 pbc="F F F"
H        0.00000000       0.00000000       0.00000000       0.00000000       0.00000000       0.12003751
H        0.00000000       0.00000000       8.77551020       0.00000000       0.00000000      -0.12003751
2
Properties=species:S:1:pos:R:3:forces:R:3 energy=-0.40169429893746916 pbc="F F F"
H        0.00000000       0.00000000       0.00000000       0.00000000       0.00000000       0.11376077
H        0.00000000       0.00000000       8.97959184       0.00000000       0.00000000      -0.11376077
2
Properties=species:S:1:pos:R:3:forces:R:3 energy=-0.37909491175053 pbc="F F F"
H        0.00000000       0.00000000       0.00000000       0.00000000       0.00000000       0.10775860
H        0.00000000       0.00000000       9.18367347       0.00000000       0.00000000      -0.10775860
2
Properties=species:S:1:pos:R:3:forces:R:3 energy=-0.3576928556624738 pbc="F F F"
H        0.00000000       0.00000000       0.00000000       0.00000000       0.00000000       0.10202601
H        0.00000000       0.00000000       9.38775510       0.00000000       0.00000000      -0.10202601
2
Properties=species:S:1:pos:R:3:forces:R:3 energy=-0.33743371169149045 pbc="F F F"
H        0.00000000       0.00000000       0.00000000       0.00000000       0.00000000       0.09655699
H        0.00000000       0.00000000       9.59183673       0.00000000       0.00000000      -0.09655699
2
Properties=species:S:1:pos:R:3:forces:R:3 energy=-0.3182643694070143 pbc="F F F"
H        0.00000000       0.00000000       0.00000000       0.00000000       0.00000000       0.09134476
H        0.00000000       0.00000000       9.79591837       0.00000000       0.00000000      -0.09134476
2
Properties=species:S:1:pos:R:3:forces:R:3 energy=-0.3001331708735814 pbc="F F F"
H        0.00000000       0.00000000       0.00000000       0.00000000       0.00000000       0.08638190
H        0.00000000       0.00000000      10.00000000       0.00000000       0.00000000      -0.08638190
